**DIRAC
.TITLE
 In,ffpt RelCC
.WAVE F
.4INDEX
.ANALYZE
**ANALYZE
.MULPOP
**MULPOP
1..oo
**HAMILTONIAN                                                                                       
.DOSSSS                                                                                             
.OPERATOR                                                                                           
 'Theta quadru-field'                                                                               
 DIAGONAL                                                                                           
 ZZTHETA                                                                                            
 COMFACTOR                                                                                          
 zff
**INTEGRALS
*READINP
.UNCONTRACT
**WAVE FUNCTIONS
.SCF
.RESOLVE
*SCF
# [Kr 36] 3d10 4s2 4p1
.CLOSED SHELL
48
.OPEN SHELL
1
1/2
.EVCCNV
1.0D-9  5.0D-8
.MAXITR
60
**MOLTRA
.ACTIVE
energy -2 10 0.0
**RELCC
.NELEC
16 15
.ENERGY
.PRINT
1
*CCENER
.MAXIT
60
.NTOL
14
.MAXDIM
50
*END OF
